*Heading
** Job name: test_CSBI Model name: Model-1
** Generated by: Abaqus/CAE 6.14-2
*Preprint, echo=NO, model=NO, history=NO, contact=NO
**
** PARTS
**
*Part, name=Part-1
*Node
      1,           0.,          20.,          20.
      2,           0.,          20.,          10.
      3,           0.,         -20.,          10.
      4,           0.,         -20.,          20.
      5,           0.,          20.,           0.
      6,           0.,         -20.,           0.
      7,          20.,           0.,          10.
      8,          20.,           0.,           0.
      9,          20.,           0.,          20.
     10,           0.,          20.,    19.545454
     11,           0.,          20.,     19.09091
     12,           0.,          20.,    18.636364
     13,           0.,          20.,    18.181818
     14,           0.,          20.,    17.727272
     15,           0.,          20.,    17.272728
     16,           0.,          20.,    16.818182
     17,           0.,          20.,    16.363636
     18,           0.,          20.,    15.909091
     19,           0.,          20.,    15.454545
     20,           0.,          20.,          15.
** ... 12580 like lines cut
*Element, type=S4R
   1,    1,   10,  925,  329
   2,   10,   11,  926,  925
   3,   11,   12,  927,  926
   4,   12,   13,  928,  927
   5,   13,   14,  929,  928
   6,   14,   15,  930,  929
   7,   15,   16,  931,  930
   8,   16,   17,  932,  931
   9,   17,   18,  933,  932
  10,   18,   19,  934,  933
  11,   19,   20,  935,  934
  12,   20,   21,  936,  935
  13,   21,   22,  937,  936
  14,   22,   23,  938,  937
  15,   23,   24,  939,  938
  16,   24,   25,  940,  939
  17,   25,   26,  941,  940
  18,   26,   27,  942,  941
  19,   27,   28,  943,  942
  20,   28,   29,  944,  943
** ... 12300 like lines cut
*Nset, nset=Set-1, generate
     1,  12600,      1
*Elset, elset=Set-1, generate
     1,  12320,      1
** Section: Section-1
*Shell Section, elset=Set-1, material=Material-1
0.005, 5
*End Part
**  
**
** ASSEMBLY
**
*Assembly, name=Assembly
**  
*Instance, name=Part-1-1, part=Part-1
*End Instance
**  
*Node
      1,           0.,  -1.2246468e-15,          20.
*Nset, nset=Set-1, instance=Part-1-1
   5,   6,   8, 351, 352, 353, 354, 355, 356, 357, 358, 359, 360, 361, 362, 363
 364, 365, 366, 367, 368, 369, 370, 371, 372, 373, 374, 375, 376, 377, 378, 379
 380, 381, 382, 383, 384, 385, 386, 387, 388, 389, 390, 391, 392, 393, 394, 395
 396, 397, 398, 399, 400, 401, 402, 403, 404, 405, 406, 407, 408, 409, 410, 411
 412, 413, 414, 415, 416, 417, 418, 419, 420, 421, 422, 423, 424, 425, 426, 427
 428, 429, 430, 431, 432, 433, 434, 435, 436, 437, 438, 439, 440, 441, 442, 443
 444, 445, 446, 447, 448, 449, 450, 451, 452, 453, 454, 455, 456, 457, 458, 459
 460, 461, 462, 463, 464, 465, 466, 467, 468, 469, 470, 471, 472, 473, 474, 475
 476, 477, 478, 479, 480, 481, 482, 483, 484, 485, 486, 487, 488, 489, 649, 650
 651, 652, 653, 654, 655, 656, 657, 658, 659, 660, 661, 662, 663, 664, 665, 666
 667, 668, 669, 670, 671, 672, 673, 674, 675, 676, 677, 678, 679, 680, 681, 682
 683, 684, 685, 686, 687, 688, 689, 690, 691, 692, 693, 694, 695, 696, 697, 698
 699, 700, 701, 702, 703, 704, 705, 706, 707, 708, 709, 710, 711, 712, 713, 714
 715, 716, 717, 718, 719, 720, 721, 722, 723, 724, 725, 726, 727, 728, 729, 730
 731, 732, 733, 734, 735, 736, 737, 738, 739, 740, 741, 742, 743, 744, 745, 746
 747, 748, 749, 750, 751, 752, 753, 754, 755, 756, 757, 758, 759, 760, 761, 762
 763, 764, 765, 766, 767, 768, 769, 770, 771, 772, 773, 774, 775, 776, 777, 778
 779, 780, 781, 782, 783, 784, 785, 786
*Nset, nset=Set-2, instance=Part-1-1
   1,   4,   9, 191, 192, 193, 194, 195, 196, 197, 198, 199, 200, 201, 202, 203
 204, 205, 206, 207, 208, 209, 210, 211, 212, 213, 214, 215, 216, 217, 218, 219
 220, 221, 222, 223, 224, 225, 226, 227, 228, 229, 230, 231, 232, 233, 234, 235
 236, 237, 238, 239, 240, 241, 242, 243, 244, 245, 246, 247, 248, 249, 250, 251
 252, 253, 254, 255, 256, 257, 258, 259, 260, 261, 262, 263, 264, 265, 266, 267
 268, 269, 270, 271, 272, 273, 274, 275, 276, 277, 278, 279, 280, 281, 282, 283
 284, 285, 286, 287, 288, 289, 290, 291, 292, 293, 294, 295, 296, 297, 298, 299
 300, 301, 302, 303, 304, 305, 306, 307, 308, 309, 310, 311, 312, 313, 314, 315
 316, 317, 318, 319, 320, 321, 322, 323, 324, 325, 326, 327, 328, 329, 787, 788
 789, 790, 791, 792, 793, 794, 795, 796, 797, 798, 799, 800, 801, 802, 803, 804
 805, 806, 807, 808, 809, 810, 811, 812, 813, 814, 815, 816, 817, 818, 819, 820
 821, 822, 823, 824, 825, 826, 827, 828, 829, 830, 831, 832, 833, 834, 835, 836
 837, 838, 839, 840, 841, 842, 843, 844, 845, 846, 847, 848, 849, 850, 851, 852
 853, 854, 855, 856, 857, 858, 859, 860, 861, 862, 863, 864, 865, 866, 867, 868
 869, 870, 871, 872, 873, 874, 875, 876, 877, 878, 879, 880, 881, 882, 883, 884
 885, 886, 887, 888, 889, 890, 891, 892, 893, 894, 895, 896, 897, 898, 899, 900
 901, 902, 903, 904, 905, 906, 907, 908, 909, 910, 911, 912, 913, 914, 915, 916
 917, 918, 919, 920, 921, 922, 923, 924
*Nset, nset=Set-4, instance=Part-1-1
 3,
*Nset, nset=Set-5
 1,
*Nset, nset=m_Set-3
 1,
*Surface, type=NODE, name=Set-2_CNS_, internal
Set-2, 1.
*Nset, nset=_T-cyl, internal
Set-1, 
Set-2, 
Set-5, 
Set-4, 
m_Set-3, 
*Transform, nset=_T-cyl, type=C
          0.,           0.,           0.,           0.,           0.,           1.
** Constraint: Constraint-1
*MPC
PIN, Set-2, m_Set-3
*End Assembly
** 
** MATERIALS
** 
*Material, name=Material-1
*Elastic
 7e+10, 0.33
** ----------------------------------------------------------------
** 
** STEP: Step-1
** 
*Step, name=Step-1, nlgeom=YES, inc=1000
*Static, stabilize, factor=1e-07, allsdtol=0, continue=NO
0.01, 1., 1e-06, 1.
** 
** BOUNDARY CONDITIONS
** 
** Name: BC-1 Type: Displacement/Rotation
*Boundary
Set-1, 1, 1
Set-1, 2, 2
Set-1, 3, 3
Set-1, 4, 4
Set-1, 5, 5
Set-1, 6, 6
** Name: BC-2 Type: Displacement/Rotation
*Boundary
Set-2, 1, 1
Set-2, 2, 2
Set-2, 4, 4
Set-2, 5, 5
Set-2, 6, 6
** Name: BC-3 Type: Displacement/Rotation
*Boundary
Set-5, 1, 1
Set-5, 2, 2
Set-5, 4, 4
Set-5, 5, 5
Set-5, 6, 6
** Name: BC-4 Type: Displacement/Rotation
*Boundary
Set-4, 1, 1, -0.1
** 
** OUTPUT REQUESTS
** 
*Restart, write, frequency=0
** 
** FIELD OUTPUT: F-Output-1
** 
*Output, field, variable=PRESELECT
** 
** HISTORY OUTPUT: H-Output-1
** 
*Output, history, variable=PRESELECT
*End Step
** ----------------------------------------------------------------
** 
** STEP: Step-2
** 
*Step, name=Step-2, nlgeom=YES, inc=1000
*Static, stabilize, factor=1e-07, allsdtol=0, continue=NO
0.01, 1., 1e-07, 1.
** 
** BOUNDARY CONDITIONS
** 
** Name: BC-5 Type: Displacement/Rotation
*Boundary
Set-5, 3, 3, -0.05
** 
** OUTPUT REQUESTS
** 
*Restart, write, frequency=0
** 
** FIELD OUTPUT: F-Output-1
** 
*Output, field, variable=PRESELECT
** 
** HISTORY OUTPUT: H-Output-1
** 
*Output, history, variable=PRESELECT
*End Step
